*SPEF "ieee 1481-1999"
*DESIGN "FourBitFullAdder"
*DATE "05:44:40 Thursday October 17, 2024"
*VENDOR "The OpenROAD Project"
*PROGRAM "OpenROAD"
*VERSION "b16bda7e82721d10566ff7e2b68f1ff0be9f9e38"
*DESIGN_FLOW "NAME_SCOPE LOCAL" "PIN_CAP NONE"
*DIVIDER /
*DELIMITER :
*BUS_DELIMITER []
*T_UNIT 1 NS
*C_UNIT 1 PF
*R_UNIT 1 OHM
*L_UNIT 1 HENRY

*NAME_MAP
*1 A[0]
*2 A[1]
*3 A[2]
*4 A[3]
*5 B[0]
*6 B[1]
*7 B[2]
*8 B[3]
*9 Cin
*10 Cout
*11 GND
*12 Sum[0]
*13 Sum[1]
*14 Sum[2]
*15 Sum[3]
*16 VDD
*19 virtual_clk
*20 _00_
*21 _01_
*22 _02_
*23 _03_
*24 _04_
*25 _05_
*26 _06_
*27 _07_
*28 _08_
*29 _09_
*30 _10_
*31 _11_
*32 _12_
*33 _13_
*34 _14_
*35 net1
*36 net10
*37 net11
*38 net12
*39 net13
*40 net14
*41 net2
*42 net3
*43 net4
*44 net5
*45 net6
*46 net7
*47 net8
*48 net9
*49 FILLER_0_0_109
*50 FILLER_0_0_113
*51 FILLER_0_0_125
*52 FILLER_0_0_137
*53 FILLER_0_0_141
*54 FILLER_0_0_15
*55 FILLER_0_0_153
*56 FILLER_0_0_165
*57 FILLER_0_0_169
*58 FILLER_0_0_181
*59 FILLER_0_0_192
*60 FILLER_0_0_197
*61 FILLER_0_0_209
*62 FILLER_0_0_221
*63 FILLER_0_0_225
*64 FILLER_0_0_237
*65 FILLER_0_0_249
*66 FILLER_0_0_253
*67 FILLER_0_0_265
*68 FILLER_0_0_27
*69 FILLER_0_0_277
*70 FILLER_0_0_281
*71 FILLER_0_0_29
*72 FILLER_0_0_293
*73 FILLER_0_0_3
*74 FILLER_0_0_305
*75 FILLER_0_0_309
*76 FILLER_0_0_321
*77 FILLER_0_0_333
*78 FILLER_0_0_337
*79 FILLER_0_0_349
*80 FILLER_0_0_361
*81 FILLER_0_0_365
*82 FILLER_0_0_373
*83 FILLER_0_0_41
*84 FILLER_0_0_53
*85 FILLER_0_0_57
*86 FILLER_0_0_69
*87 FILLER_0_0_81
*88 FILLER_0_0_85
*89 FILLER_0_0_97
*90 FILLER_0_10_109
*91 FILLER_0_10_121
*92 FILLER_0_10_133
*93 FILLER_0_10_139
*94 FILLER_0_10_141
*95 FILLER_0_10_15
*96 FILLER_0_10_153
*97 FILLER_0_10_165
*98 FILLER_0_10_177
*99 FILLER_0_10_189
*100 FILLER_0_10_195
*101 FILLER_0_10_197
*102 FILLER_0_10_209
*103 FILLER_0_10_221
*104 FILLER_0_10_233
*105 FILLER_0_10_245
*106 FILLER_0_10_251
*107 FILLER_0_10_253
*108 FILLER_0_10_265
*109 FILLER_0_10_27
*110 FILLER_0_10_277
*111 FILLER_0_10_289
*112 FILLER_0_10_29
*113 FILLER_0_10_3
*114 FILLER_0_10_301
*115 FILLER_0_10_307
*116 FILLER_0_10_309
*117 FILLER_0_10_321
*118 FILLER_0_10_333
*119 FILLER_0_10_345
*120 FILLER_0_10_357
*121 FILLER_0_10_363
*122 FILLER_0_10_365
*123 FILLER_0_10_373
*124 FILLER_0_10_41
*125 FILLER_0_10_53
*126 FILLER_0_10_65
*127 FILLER_0_10_77
*128 FILLER_0_10_83
*129 FILLER_0_10_85
*130 FILLER_0_10_97
*131 FILLER_0_11_105
*132 FILLER_0_11_111
*133 FILLER_0_11_113
*134 FILLER_0_11_125
*135 FILLER_0_11_137
*136 FILLER_0_11_149
*137 FILLER_0_11_15
*138 FILLER_0_11_161
*139 FILLER_0_11_167
*140 FILLER_0_11_169
*141 FILLER_0_11_181
*142 FILLER_0_11_193
*143 FILLER_0_11_205
*144 FILLER_0_11_217
*145 FILLER_0_11_223
*146 FILLER_0_11_225
*147 FILLER_0_11_237
*148 FILLER_0_11_249
*149 FILLER_0_11_261
*150 FILLER_0_11_27
*151 FILLER_0_11_273
*152 FILLER_0_11_279
*153 FILLER_0_11_281
*154 FILLER_0_11_293
*155 FILLER_0_11_3
*156 FILLER_0_11_305
*157 FILLER_0_11_317
*158 FILLER_0_11_329
*159 FILLER_0_11_335
*160 FILLER_0_11_337
*161 FILLER_0_11_349
*162 FILLER_0_11_361
*163 FILLER_0_11_373
*164 FILLER_0_11_39
*165 FILLER_0_11_51
*166 FILLER_0_11_55
*167 FILLER_0_11_57
*168 FILLER_0_11_69
*169 FILLER_0_11_81
*170 FILLER_0_11_93
*171 FILLER_0_12_109
*172 FILLER_0_12_121
*173 FILLER_0_12_133
*174 FILLER_0_12_139
*175 FILLER_0_12_141
*176 FILLER_0_12_15
*177 FILLER_0_12_153
*178 FILLER_0_12_165
*179 FILLER_0_12_177
*180 FILLER_0_12_189
*181 FILLER_0_12_195
*182 FILLER_0_12_197
*183 FILLER_0_12_209
*184 FILLER_0_12_221
*185 FILLER_0_12_233
*186 FILLER_0_12_245
*187 FILLER_0_12_251
*188 FILLER_0_12_253
*189 FILLER_0_12_265
*190 FILLER_0_12_27
*191 FILLER_0_12_277
*192 FILLER_0_12_289
*193 FILLER_0_12_29
*194 FILLER_0_12_3
*195 FILLER_0_12_301
*196 FILLER_0_12_307
*197 FILLER_0_12_309
*198 FILLER_0_12_321
*199 FILLER_0_12_333
*200 FILLER_0_12_345
*201 FILLER_0_12_357
*202 FILLER_0_12_363
*203 FILLER_0_12_365
*204 FILLER_0_12_373
*205 FILLER_0_12_41
*206 FILLER_0_12_53
*207 FILLER_0_12_65
*208 FILLER_0_12_77
*209 FILLER_0_12_83
*210 FILLER_0_12_85
*211 FILLER_0_12_97
*212 FILLER_0_13_105
*213 FILLER_0_13_111
*214 FILLER_0_13_113
*215 FILLER_0_13_125
*216 FILLER_0_13_137
*217 FILLER_0_13_149
*218 FILLER_0_13_15
*219 FILLER_0_13_161
*220 FILLER_0_13_167
*221 FILLER_0_13_169
*222 FILLER_0_13_181
*223 FILLER_0_13_193
*224 FILLER_0_13_205
*225 FILLER_0_13_217
*226 FILLER_0_13_223
*227 FILLER_0_13_225
*228 FILLER_0_13_237
*229 FILLER_0_13_249
*230 FILLER_0_13_261
*231 FILLER_0_13_27
*232 FILLER_0_13_273
*233 FILLER_0_13_279
*234 FILLER_0_13_281
*235 FILLER_0_13_293
*236 FILLER_0_13_3
*237 FILLER_0_13_305
*238 FILLER_0_13_317
*239 FILLER_0_13_329
*240 FILLER_0_13_335
*241 FILLER_0_13_337
*242 FILLER_0_13_349
*243 FILLER_0_13_361
*244 FILLER_0_13_373
*245 FILLER_0_13_39
*246 FILLER_0_13_51
*247 FILLER_0_13_55
*248 FILLER_0_13_57
*249 FILLER_0_13_69
*250 FILLER_0_13_81
*251 FILLER_0_13_93
*252 FILLER_0_14_109
*253 FILLER_0_14_121
*254 FILLER_0_14_133
*255 FILLER_0_14_139
*256 FILLER_0_14_141
*257 FILLER_0_14_15
*258 FILLER_0_14_153
*259 FILLER_0_14_165
*260 FILLER_0_14_177
*261 FILLER_0_14_189
*262 FILLER_0_14_195
*263 FILLER_0_14_197
*264 FILLER_0_14_209
*265 FILLER_0_14_221
*266 FILLER_0_14_233
*267 FILLER_0_14_245
*268 FILLER_0_14_251
*269 FILLER_0_14_253
*270 FILLER_0_14_265
*271 FILLER_0_14_27
*272 FILLER_0_14_277
*273 FILLER_0_14_289
*274 FILLER_0_14_29
*275 FILLER_0_14_3
*276 FILLER_0_14_301
*277 FILLER_0_14_307
*278 FILLER_0_14_309
*279 FILLER_0_14_321
*280 FILLER_0_14_333
*281 FILLER_0_14_345
*282 FILLER_0_14_357
*283 FILLER_0_14_363
*284 FILLER_0_14_365
*285 FILLER_0_14_373
*286 FILLER_0_14_41
*287 FILLER_0_14_53
*288 FILLER_0_14_65
*289 FILLER_0_14_77
*290 FILLER_0_14_83
*291 FILLER_0_14_85
*292 FILLER_0_14_97
*293 FILLER_0_15_105
*294 FILLER_0_15_111
*295 FILLER_0_15_113
*296 FILLER_0_15_125
*297 FILLER_0_15_137
*298 FILLER_0_15_149
*299 FILLER_0_15_15
*300 FILLER_0_15_161
*301 FILLER_0_15_167
*302 FILLER_0_15_169
*303 FILLER_0_15_181
*304 FILLER_0_15_193
*305 FILLER_0_15_205
*306 FILLER_0_15_217
*307 FILLER_0_15_223
*308 FILLER_0_15_225
*309 FILLER_0_15_237
*310 FILLER_0_15_249
*311 FILLER_0_15_261
*312 FILLER_0_15_27
*313 FILLER_0_15_273
*314 FILLER_0_15_279
*315 FILLER_0_15_281
*316 FILLER_0_15_293
*317 FILLER_0_15_3
*318 FILLER_0_15_305
*319 FILLER_0_15_317
*320 FILLER_0_15_329
*321 FILLER_0_15_335
*322 FILLER_0_15_337
*323 FILLER_0_15_349
*324 FILLER_0_15_361
*325 FILLER_0_15_373
*326 FILLER_0_15_39
*327 FILLER_0_15_51
*328 FILLER_0_15_55
*329 FILLER_0_15_57
*330 FILLER_0_15_69
*331 FILLER_0_15_81
*332 FILLER_0_15_93
*333 FILLER_0_16_109
*334 FILLER_0_16_121
*335 FILLER_0_16_133
*336 FILLER_0_16_139
*337 FILLER_0_16_141
*338 FILLER_0_16_15
*339 FILLER_0_16_153
*340 FILLER_0_16_165
*341 FILLER_0_16_177
*342 FILLER_0_16_189
*343 FILLER_0_16_195
*344 FILLER_0_16_197
*345 FILLER_0_16_209
*346 FILLER_0_16_221
*347 FILLER_0_16_233
*348 FILLER_0_16_245
*349 FILLER_0_16_251
*350 FILLER_0_16_253
*351 FILLER_0_16_265
*352 FILLER_0_16_27
*353 FILLER_0_16_277
*354 FILLER_0_16_289
*355 FILLER_0_16_29
*356 FILLER_0_16_3
*357 FILLER_0_16_301
*358 FILLER_0_16_307
*359 FILLER_0_16_309
*360 FILLER_0_16_321
*361 FILLER_0_16_333
*362 FILLER_0_16_345
*363 FILLER_0_16_357
*364 FILLER_0_16_363
*365 FILLER_0_16_365
*366 FILLER_0_16_373
*367 FILLER_0_16_41
*368 FILLER_0_16_53
*369 FILLER_0_16_65
*370 FILLER_0_16_77
*371 FILLER_0_16_83
*372 FILLER_0_16_85
*373 FILLER_0_16_97
*374 FILLER_0_17_105
*375 FILLER_0_17_111
*376 FILLER_0_17_113
*377 FILLER_0_17_125
*378 FILLER_0_17_137
*379 FILLER_0_17_149
*380 FILLER_0_17_15
*381 FILLER_0_17_161
*382 FILLER_0_17_167
*383 FILLER_0_17_169
*384 FILLER_0_17_181
*385 FILLER_0_17_193
*386 FILLER_0_17_205
*387 FILLER_0_17_217
*388 FILLER_0_17_223
*389 FILLER_0_17_225
*390 FILLER_0_17_237
*391 FILLER_0_17_249
*392 FILLER_0_17_261
*393 FILLER_0_17_27
*394 FILLER_0_17_273
*395 FILLER_0_17_279
*396 FILLER_0_17_281
*397 FILLER_0_17_293
*398 FILLER_0_17_3
*399 FILLER_0_17_305
*400 FILLER_0_17_317
*401 FILLER_0_17_329
*402 FILLER_0_17_335
*403 FILLER_0_17_337
*404 FILLER_0_17_349
*405 FILLER_0_17_361
*406 FILLER_0_17_373
*407 FILLER_0_17_39
*408 FILLER_0_17_51
*409 FILLER_0_17_55
*410 FILLER_0_17_57
*411 FILLER_0_17_69
*412 FILLER_0_17_81
*413 FILLER_0_17_93
*414 FILLER_0_18_109
*415 FILLER_0_18_121
*416 FILLER_0_18_133
*417 FILLER_0_18_139
*418 FILLER_0_18_141
*419 FILLER_0_18_15
*420 FILLER_0_18_153
*421 FILLER_0_18_165
*422 FILLER_0_18_177
*423 FILLER_0_18_189
*424 FILLER_0_18_195
*425 FILLER_0_18_197
*426 FILLER_0_18_209
*427 FILLER_0_18_221
*428 FILLER_0_18_233
*429 FILLER_0_18_245
*430 FILLER_0_18_251
*431 FILLER_0_18_253
*432 FILLER_0_18_265
*433 FILLER_0_18_27
*434 FILLER_0_18_277
*435 FILLER_0_18_289
*436 FILLER_0_18_29
*437 FILLER_0_18_3
*438 FILLER_0_18_301
*439 FILLER_0_18_307
*440 FILLER_0_18_309
*441 FILLER_0_18_321
*442 FILLER_0_18_333
*443 FILLER_0_18_345
*444 FILLER_0_18_357
*445 FILLER_0_18_363
*446 FILLER_0_18_365
*447 FILLER_0_18_373
*448 FILLER_0_18_41
*449 FILLER_0_18_53
*450 FILLER_0_18_65
*451 FILLER_0_18_77
*452 FILLER_0_18_83
*453 FILLER_0_18_85
*454 FILLER_0_18_97
*455 FILLER_0_19_105
*456 FILLER_0_19_111
*457 FILLER_0_19_113
*458 FILLER_0_19_125
*459 FILLER_0_19_137
*460 FILLER_0_19_149
*461 FILLER_0_19_15
*462 FILLER_0_19_161
*463 FILLER_0_19_167
*464 FILLER_0_19_169
*465 FILLER_0_19_181
*466 FILLER_0_19_193
*467 FILLER_0_19_205
*468 FILLER_0_19_217
*469 FILLER_0_19_223
*470 FILLER_0_19_225
*471 FILLER_0_19_237
*472 FILLER_0_19_249
*473 FILLER_0_19_261
*474 FILLER_0_19_27
*475 FILLER_0_19_273
*476 FILLER_0_19_279
*477 FILLER_0_19_281
*478 FILLER_0_19_293
*479 FILLER_0_19_3
*480 FILLER_0_19_305
*481 FILLER_0_19_317
*482 FILLER_0_19_329
*483 FILLER_0_19_335
*484 FILLER_0_19_337
*485 FILLER_0_19_349
*486 FILLER_0_19_361
*487 FILLER_0_19_373
*488 FILLER_0_19_39
*489 FILLER_0_19_51
*490 FILLER_0_19_55
*491 FILLER_0_19_57
*492 FILLER_0_19_69
*493 FILLER_0_19_81
*494 FILLER_0_19_93
*495 FILLER_0_1_105
*496 FILLER_0_1_111
*497 FILLER_0_1_113
*498 FILLER_0_1_125
*499 FILLER_0_1_137
*500 FILLER_0_1_149
*501 FILLER_0_1_15
*502 FILLER_0_1_161
*503 FILLER_0_1_167
*504 FILLER_0_1_169
*505 FILLER_0_1_181
*506 FILLER_0_1_193
*507 FILLER_0_1_205
*508 FILLER_0_1_217
*509 FILLER_0_1_223
*510 FILLER_0_1_225
*511 FILLER_0_1_237
*512 FILLER_0_1_249
*513 FILLER_0_1_261
*514 FILLER_0_1_27
*515 FILLER_0_1_273
*516 FILLER_0_1_279
*517 FILLER_0_1_281
*518 FILLER_0_1_293
*519 FILLER_0_1_3
*520 FILLER_0_1_305
*521 FILLER_0_1_317
*522 FILLER_0_1_329
*523 FILLER_0_1_335
*524 FILLER_0_1_337
*525 FILLER_0_1_349
*526 FILLER_0_1_361
*527 FILLER_0_1_373
*528 FILLER_0_1_39
*529 FILLER_0_1_51
*530 FILLER_0_1_55
*531 FILLER_0_1_57
*532 FILLER_0_1_69
*533 FILLER_0_1_81
*534 FILLER_0_1_93
*535 FILLER_0_20_109
*536 FILLER_0_20_121
*537 FILLER_0_20_133
*538 FILLER_0_20_139
*539 FILLER_0_20_141
*540 FILLER_0_20_15
*541 FILLER_0_20_153
*542 FILLER_0_20_165
*543 FILLER_0_20_177
*544 FILLER_0_20_189
*545 FILLER_0_20_195
*546 FILLER_0_20_197
*547 FILLER_0_20_209
*548 FILLER_0_20_221
*549 FILLER_0_20_233
*550 FILLER_0_20_245
*551 FILLER_0_20_251
*552 FILLER_0_20_253
*553 FILLER_0_20_265
*554 FILLER_0_20_27
*555 FILLER_0_20_277
*556 FILLER_0_20_289
*557 FILLER_0_20_29
*558 FILLER_0_20_3
*559 FILLER_0_20_301
*560 FILLER_0_20_307
*561 FILLER_0_20_309
*562 FILLER_0_20_321
*563 FILLER_0_20_333
*564 FILLER_0_20_345
*565 FILLER_0_20_357
*566 FILLER_0_20_363
*567 FILLER_0_20_365
*568 FILLER_0_20_373
*569 FILLER_0_20_41
*570 FILLER_0_20_53
*571 FILLER_0_20_65
*572 FILLER_0_20_77
*573 FILLER_0_20_83
*574 FILLER_0_20_85
*575 FILLER_0_20_97
*576 FILLER_0_21_105
*577 FILLER_0_21_111
*578 FILLER_0_21_113
*579 FILLER_0_21_125
*580 FILLER_0_21_137
*581 FILLER_0_21_149
*582 FILLER_0_21_15
*583 FILLER_0_21_161
*584 FILLER_0_21_167
*585 FILLER_0_21_169
*586 FILLER_0_21_181
*587 FILLER_0_21_193
*588 FILLER_0_21_205
*589 FILLER_0_21_217
*590 FILLER_0_21_223
*591 FILLER_0_21_225
*592 FILLER_0_21_237
*593 FILLER_0_21_249
*594 FILLER_0_21_261
*595 FILLER_0_21_27
*596 FILLER_0_21_273
*597 FILLER_0_21_279
*598 FILLER_0_21_281
*599 FILLER_0_21_293
*600 FILLER_0_21_3
*601 FILLER_0_21_305
*602 FILLER_0_21_317
*603 FILLER_0_21_329
*604 FILLER_0_21_335
*605 FILLER_0_21_337
*606 FILLER_0_21_349
*607 FILLER_0_21_361
*608 FILLER_0_21_373
*609 FILLER_0_21_39
*610 FILLER_0_21_51
*611 FILLER_0_21_55
*612 FILLER_0_21_57
*613 FILLER_0_21_69
*614 FILLER_0_21_81
*615 FILLER_0_21_93
*616 FILLER_0_22_109
*617 FILLER_0_22_121
*618 FILLER_0_22_133
*619 FILLER_0_22_139
*620 FILLER_0_22_141
*621 FILLER_0_22_15
*622 FILLER_0_22_153
*623 FILLER_0_22_165
*624 FILLER_0_22_177
*625 FILLER_0_22_189
*626 FILLER_0_22_195
*627 FILLER_0_22_197
*628 FILLER_0_22_209
*629 FILLER_0_22_221
*630 FILLER_0_22_233
*631 FILLER_0_22_245
*632 FILLER_0_22_251
*633 FILLER_0_22_253
*634 FILLER_0_22_265
*635 FILLER_0_22_27
*636 FILLER_0_22_277
*637 FILLER_0_22_289
*638 FILLER_0_22_29
*639 FILLER_0_22_3
*640 FILLER_0_22_301
*641 FILLER_0_22_307
*642 FILLER_0_22_309
*643 FILLER_0_22_321
*644 FILLER_0_22_333
*645 FILLER_0_22_345
*646 FILLER_0_22_357
*647 FILLER_0_22_363
*648 FILLER_0_22_365
*649 FILLER_0_22_373
*650 FILLER_0_22_41
*651 FILLER_0_22_53
*652 FILLER_0_22_65
*653 FILLER_0_22_77
*654 FILLER_0_22_83
*655 FILLER_0_22_85
*656 FILLER_0_22_97
*657 FILLER_0_23_105
*658 FILLER_0_23_111
*659 FILLER_0_23_113
*660 FILLER_0_23_125
*661 FILLER_0_23_137
*662 FILLER_0_23_149
*663 FILLER_0_23_15
*664 FILLER_0_23_161
*665 FILLER_0_23_167
*666 FILLER_0_23_169
*667 FILLER_0_23_181
*668 FILLER_0_23_193
*669 FILLER_0_23_205
*670 FILLER_0_23_217
*671 FILLER_0_23_223
*672 FILLER_0_23_225
*673 FILLER_0_23_237
*674 FILLER_0_23_249
*675 FILLER_0_23_261
*676 FILLER_0_23_27
*677 FILLER_0_23_273
*678 FILLER_0_23_279
*679 FILLER_0_23_281
*680 FILLER_0_23_293
*681 FILLER_0_23_3
*682 FILLER_0_23_305
*683 FILLER_0_23_317
*684 FILLER_0_23_329
*685 FILLER_0_23_335
*686 FILLER_0_23_337
*687 FILLER_0_23_349
*688 FILLER_0_23_361
*689 FILLER_0_23_373
*690 FILLER_0_23_39
*691 FILLER_0_23_51
*692 FILLER_0_23_55
*693 FILLER_0_23_57
*694 FILLER_0_23_69
*695 FILLER_0_23_81
*696 FILLER_0_23_93
*697 FILLER_0_24_109
*698 FILLER_0_24_121
*699 FILLER_0_24_133
*700 FILLER_0_24_139
*701 FILLER_0_24_141
*702 FILLER_0_24_15
*703 FILLER_0_24_153
*704 FILLER_0_24_165
*705 FILLER_0_24_177
*706 FILLER_0_24_189
*707 FILLER_0_24_195
*708 FILLER_0_24_197
*709 FILLER_0_24_209
*710 FILLER_0_24_221
*711 FILLER_0_24_233
*712 FILLER_0_24_245
*713 FILLER_0_24_251
*714 FILLER_0_24_253
*715 FILLER_0_24_265
*716 FILLER_0_24_27
*717 FILLER_0_24_277
*718 FILLER_0_24_289
*719 FILLER_0_24_29
*720 FILLER_0_24_3
*721 FILLER_0_24_301
*722 FILLER_0_24_307
*723 FILLER_0_24_309
*724 FILLER_0_24_321
*725 FILLER_0_24_333
*726 FILLER_0_24_345
*727 FILLER_0_24_357
*728 FILLER_0_24_363
*729 FILLER_0_24_365
*730 FILLER_0_24_373
*731 FILLER_0_24_41
*732 FILLER_0_24_53
*733 FILLER_0_24_65
*734 FILLER_0_24_77
*735 FILLER_0_24_83
*736 FILLER_0_24_85
*737 FILLER_0_24_97
*738 FILLER_0_25_105
*739 FILLER_0_25_111
*740 FILLER_0_25_113
*741 FILLER_0_25_125
*742 FILLER_0_25_137
*743 FILLER_0_25_149
*744 FILLER_0_25_15
*745 FILLER_0_25_161
*746 FILLER_0_25_167
*747 FILLER_0_25_169
*748 FILLER_0_25_181
*749 FILLER_0_25_193
*750 FILLER_0_25_205
*751 FILLER_0_25_217
*752 FILLER_0_25_223
*753 FILLER_0_25_225
*754 FILLER_0_25_237
*755 FILLER_0_25_249
*756 FILLER_0_25_261
*757 FILLER_0_25_27
*758 FILLER_0_25_273
*759 FILLER_0_25_279
*760 FILLER_0_25_281
*761 FILLER_0_25_293
*762 FILLER_0_25_3
*763 FILLER_0_25_305
*764 FILLER_0_25_317
*765 FILLER_0_25_329
*766 FILLER_0_25_335
*767 FILLER_0_25_337
*768 FILLER_0_25_349
*769 FILLER_0_25_361
*770 FILLER_0_25_373
*771 FILLER_0_25_39
*772 FILLER_0_25_51
*773 FILLER_0_25_55
*774 FILLER_0_25_57
*775 FILLER_0_25_69
*776 FILLER_0_25_81
*777 FILLER_0_25_93
*778 FILLER_0_26_109
*779 FILLER_0_26_121
*780 FILLER_0_26_133
*781 FILLER_0_26_139
*782 FILLER_0_26_141
*783 FILLER_0_26_15
*784 FILLER_0_26_153
*785 FILLER_0_26_165
*786 FILLER_0_26_177
*787 FILLER_0_26_189
*788 FILLER_0_26_195
*789 FILLER_0_26_197
*790 FILLER_0_26_209
*791 FILLER_0_26_221
*792 FILLER_0_26_233
*793 FILLER_0_26_245
*794 FILLER_0_26_251
*795 FILLER_0_26_253
*796 FILLER_0_26_265
*797 FILLER_0_26_27
*798 FILLER_0_26_277
*799 FILLER_0_26_289
*800 FILLER_0_26_29
*801 FILLER_0_26_3
*802 FILLER_0_26_301
*803 FILLER_0_26_307
*804 FILLER_0_26_309
*805 FILLER_0_26_321
*806 FILLER_0_26_333
*807 FILLER_0_26_345
*808 FILLER_0_26_357
*809 FILLER_0_26_363
*810 FILLER_0_26_365
*811 FILLER_0_26_373
*812 FILLER_0_26_41
*813 FILLER_0_26_53
*814 FILLER_0_26_65
*815 FILLER_0_26_77
*816 FILLER_0_26_83
*817 FILLER_0_26_85
*818 FILLER_0_26_97
*819 FILLER_0_27_105
*820 FILLER_0_27_111
*821 FILLER_0_27_113
*822 FILLER_0_27_125
*823 FILLER_0_27_137
*824 FILLER_0_27_149
*825 FILLER_0_27_15
*826 FILLER_0_27_161
*827 FILLER_0_27_167
*828 FILLER_0_27_169
*829 FILLER_0_27_181
*830 FILLER_0_27_193
*831 FILLER_0_27_205
*832 FILLER_0_27_217
*833 FILLER_0_27_223
*834 FILLER_0_27_225
*835 FILLER_0_27_237
*836 FILLER_0_27_249
*837 FILLER_0_27_261
*838 FILLER_0_27_27
*839 FILLER_0_27_273
*840 FILLER_0_27_279
*841 FILLER_0_27_281
*842 FILLER_0_27_293
*843 FILLER_0_27_3
*844 FILLER_0_27_305
*845 FILLER_0_27_317
*846 FILLER_0_27_329
*847 FILLER_0_27_335
*848 FILLER_0_27_337
*849 FILLER_0_27_349
*850 FILLER_0_27_361
*851 FILLER_0_27_373
*852 FILLER_0_27_39
*853 FILLER_0_27_51
*854 FILLER_0_27_55
*855 FILLER_0_27_57
*856 FILLER_0_27_69
*857 FILLER_0_27_81
*858 FILLER_0_27_93
*859 FILLER_0_28_109
*860 FILLER_0_28_121
*861 FILLER_0_28_133
*862 FILLER_0_28_139
*863 FILLER_0_28_141
*864 FILLER_0_28_153
*865 FILLER_0_28_165
*866 FILLER_0_28_177
*867 FILLER_0_28_18
*868 FILLER_0_28_189
*869 FILLER_0_28_195
*870 FILLER_0_28_197
*871 FILLER_0_28_209
*872 FILLER_0_28_221
*873 FILLER_0_28_233
*874 FILLER_0_28_245
*875 FILLER_0_28_251
*876 FILLER_0_28_253
*877 FILLER_0_28_26
*878 FILLER_0_28_265
*879 FILLER_0_28_277
*880 FILLER_0_28_289
*881 FILLER_0_28_29
*882 FILLER_0_28_301
*883 FILLER_0_28_307
*884 FILLER_0_28_309
*885 FILLER_0_28_321
*886 FILLER_0_28_333
*887 FILLER_0_28_345
*888 FILLER_0_28_357
*889 FILLER_0_28_363
*890 FILLER_0_28_365
*891 FILLER_0_28_41
*892 FILLER_0_28_53
*893 FILLER_0_28_6
*894 FILLER_0_28_65
*895 FILLER_0_28_77
*896 FILLER_0_28_83
*897 FILLER_0_28_85
*898 FILLER_0_28_97
*899 FILLER_0_29_105
*900 FILLER_0_29_111
*901 FILLER_0_29_113
*902 FILLER_0_29_125
*903 FILLER_0_29_137
*904 FILLER_0_29_149
*905 FILLER_0_29_161
*906 FILLER_0_29_167
*907 FILLER_0_29_169
*908 FILLER_0_29_18
*909 FILLER_0_29_181
*910 FILLER_0_29_193
*911 FILLER_0_29_205
*912 FILLER_0_29_217
*913 FILLER_0_29_223
*914 FILLER_0_29_225
*915 FILLER_0_29_237
*916 FILLER_0_29_249
*917 FILLER_0_29_261
*918 FILLER_0_29_273
*919 FILLER_0_29_279
*920 FILLER_0_29_281
*921 FILLER_0_29_293
*922 FILLER_0_29_30
*923 FILLER_0_29_305
*924 FILLER_0_29_317
*925 FILLER_0_29_329
*926 FILLER_0_29_335
*927 FILLER_0_29_337
*928 FILLER_0_29_349
*929 FILLER_0_29_361
*930 FILLER_0_29_42
*931 FILLER_0_29_54
*932 FILLER_0_29_57
*933 FILLER_0_29_6
*934 FILLER_0_29_69
*935 FILLER_0_29_81
*936 FILLER_0_29_93
*937 FILLER_0_2_109
*938 FILLER_0_2_121
*939 FILLER_0_2_133
*940 FILLER_0_2_139
*941 FILLER_0_2_141
*942 FILLER_0_2_15
*943 FILLER_0_2_153
*944 FILLER_0_2_165
*945 FILLER_0_2_177
*946 FILLER_0_2_189
*947 FILLER_0_2_195
*948 FILLER_0_2_197
*949 FILLER_0_2_209
*950 FILLER_0_2_221
*951 FILLER_0_2_233
*952 FILLER_0_2_245
*953 FILLER_0_2_251
*954 FILLER_0_2_253
*955 FILLER_0_2_265
*956 FILLER_0_2_27
*957 FILLER_0_2_277
*958 FILLER_0_2_289
*959 FILLER_0_2_29
*960 FILLER_0_2_3
*961 FILLER_0_2_301
*962 FILLER_0_2_307
*963 FILLER_0_2_309
*964 FILLER_0_2_321
*965 FILLER_0_2_333
*966 FILLER_0_2_345
*967 FILLER_0_2_357
*968 FILLER_0_2_363
*969 FILLER_0_2_365
*970 FILLER_0_2_373
*971 FILLER_0_2_41
*972 FILLER_0_2_53
*973 FILLER_0_2_65
*974 FILLER_0_2_77
*975 FILLER_0_2_83
*976 FILLER_0_2_85
*977 FILLER_0_2_97
*978 FILLER_0_30_109
*979 FILLER_0_30_118
*980 FILLER_0_30_130
*981 FILLER_0_30_138
*982 FILLER_0_30_141
*983 FILLER_0_30_152
*984 FILLER_0_30_160
*985 FILLER_0_30_172
*986 FILLER_0_30_18
*987 FILLER_0_30_184
*988 FILLER_0_30_192
*989 FILLER_0_30_197
*990 FILLER_0_30_209
*991 FILLER_0_30_221
*992 FILLER_0_30_233
*993 FILLER_0_30_237
*994 FILLER_0_30_249
*995 FILLER_0_30_253
*996 FILLER_0_30_26
*997 FILLER_0_30_265
*998 FILLER_0_30_277
*999 FILLER_0_30_289
*1000 FILLER_0_30_29
*1001 FILLER_0_30_301
*1002 FILLER_0_30_307
*1003 FILLER_0_30_309
*1004 FILLER_0_30_321
*1005 FILLER_0_30_333
*1006 FILLER_0_30_345
*1007 FILLER_0_30_357
*1008 FILLER_0_30_363
*1009 FILLER_0_30_365
*1010 FILLER_0_30_41
*1011 FILLER_0_30_53
*1012 FILLER_0_30_6
*1013 FILLER_0_30_65
*1014 FILLER_0_30_77
*1015 FILLER_0_30_83
*1016 FILLER_0_30_85
*1017 FILLER_0_30_97
*1018 FILLER_0_31_105
*1019 FILLER_0_31_113
*1020 FILLER_0_31_128
*1021 FILLER_0_31_140
*1022 FILLER_0_31_148
*1023 FILLER_0_31_15
*1024 FILLER_0_31_167
*1025 FILLER_0_31_169
*1026 FILLER_0_31_181
*1027 FILLER_0_31_203
*1028 FILLER_0_31_215
*1029 FILLER_0_31_223
*1030 FILLER_0_31_248
*1031 FILLER_0_31_260
*1032 FILLER_0_31_27
*1033 FILLER_0_31_272
*1034 FILLER_0_31_281
*1035 FILLER_0_31_293
*1036 FILLER_0_31_3
*1037 FILLER_0_31_305
*1038 FILLER_0_31_317
*1039 FILLER_0_31_329
*1040 FILLER_0_31_335
*1041 FILLER_0_31_337
*1042 FILLER_0_31_349
*1043 FILLER_0_31_361
*1044 FILLER_0_31_373
*1045 FILLER_0_31_39
*1046 FILLER_0_31_51
*1047 FILLER_0_31_55
*1048 FILLER_0_31_57
*1049 FILLER_0_31_69
*1050 FILLER_0_31_81
*1051 FILLER_0_31_93
*1052 FILLER_0_32_109
*1053 FILLER_0_32_116
*1054 FILLER_0_32_128
*1055 FILLER_0_32_141
*1056 FILLER_0_32_153
*1057 FILLER_0_32_165
*1058 FILLER_0_32_177
*1059 FILLER_0_32_18
*1060 FILLER_0_32_189
*1061 FILLER_0_32_197
*1062 FILLER_0_32_209
*1063 FILLER_0_32_221
*1064 FILLER_0_32_233
*1065 FILLER_0_32_245
*1066 FILLER_0_32_251
*1067 FILLER_0_32_253
*1068 FILLER_0_32_26
*1069 FILLER_0_32_265
*1070 FILLER_0_32_277
*1071 FILLER_0_32_289
*1072 FILLER_0_32_29
*1073 FILLER_0_32_301
*1074 FILLER_0_32_307
*1075 FILLER_0_32_309
*1076 FILLER_0_32_321
*1077 FILLER_0_32_333
*1078 FILLER_0_32_345
*1079 FILLER_0_32_357
*1080 FILLER_0_32_363
*1081 FILLER_0_32_365
*1082 FILLER_0_32_41
*1083 FILLER_0_32_53
*1084 FILLER_0_32_6
*1085 FILLER_0_32_65
*1086 FILLER_0_32_77
*1087 FILLER_0_32_83
*1088 FILLER_0_32_85
*1089 FILLER_0_32_97
*1090 FILLER_0_33_105
*1091 FILLER_0_33_111
*1092 FILLER_0_33_113
*1093 FILLER_0_33_125
*1094 FILLER_0_33_137
*1095 FILLER_0_33_149
*1096 FILLER_0_33_161
*1097 FILLER_0_33_167
*1098 FILLER_0_33_169
*1099 FILLER_0_33_18
*1100 FILLER_0_33_181
*1101 FILLER_0_33_193
*1102 FILLER_0_33_205
*1103 FILLER_0_33_217
*1104 FILLER_0_33_223
*1105 FILLER_0_33_225
*1106 FILLER_0_33_237
*1107 FILLER_0_33_249
*1108 FILLER_0_33_261
*1109 FILLER_0_33_273
*1110 FILLER_0_33_279
*1111 FILLER_0_33_281
*1112 FILLER_0_33_293
*1113 FILLER_0_33_30
*1114 FILLER_0_33_305
*1115 FILLER_0_33_317
*1116 FILLER_0_33_329
*1117 FILLER_0_33_335
*1118 FILLER_0_33_337
*1119 FILLER_0_33_349
*1120 FILLER_0_33_361
*1121 FILLER_0_33_42
*1122 FILLER_0_33_54
*1123 FILLER_0_33_57
*1124 FILLER_0_33_6
*1125 FILLER_0_33_69
*1126 FILLER_0_33_81
*1127 FILLER_0_33_93
*1128 FILLER_0_34_109
*1129 FILLER_0_34_121
*1130 FILLER_0_34_133
*1131 FILLER_0_34_139
*1132 FILLER_0_34_141
*1133 FILLER_0_34_153
*1134 FILLER_0_34_165
*1135 FILLER_0_34_177
*1136 FILLER_0_34_18
*1137 FILLER_0_34_189
*1138 FILLER_0_34_195
*1139 FILLER_0_34_197
*1140 FILLER_0_34_209
*1141 FILLER_0_34_221
*1142 FILLER_0_34_233
*1143 FILLER_0_34_245
*1144 FILLER_0_34_251
*1145 FILLER_0_34_253
*1146 FILLER_0_34_26
*1147 FILLER_0_34_265
*1148 FILLER_0_34_277
*1149 FILLER_0_34_289
*1150 FILLER_0_34_29
*1151 FILLER_0_34_301
*1152 FILLER_0_34_307
*1153 FILLER_0_34_309
*1154 FILLER_0_34_321
*1155 FILLER_0_34_333
*1156 FILLER_0_34_345
*1157 FILLER_0_34_357
*1158 FILLER_0_34_363
*1159 FILLER_0_34_365
*1160 FILLER_0_34_41
*1161 FILLER_0_34_53
*1162 FILLER_0_34_6
*1163 FILLER_0_34_65
*1164 FILLER_0_34_77
*1165 FILLER_0_34_83
*1166 FILLER_0_34_85
*1167 FILLER_0_34_97
*1168 FILLER_0_35_105
*1169 FILLER_0_35_111
*1170 FILLER_0_35_113
*1171 FILLER_0_35_125
*1172 FILLER_0_35_137
*1173 FILLER_0_35_149
*1174 FILLER_0_35_161
*1175 FILLER_0_35_167
*1176 FILLER_0_35_169
*1177 FILLER_0_35_18
*1178 FILLER_0_35_181
*1179 FILLER_0_35_193
*1180 FILLER_0_35_205
*1181 FILLER_0_35_217
*1182 FILLER_0_35_223
*1183 FILLER_0_35_225
*1184 FILLER_0_35_237
*1185 FILLER_0_35_249
*1186 FILLER_0_35_261
*1187 FILLER_0_35_273
*1188 FILLER_0_35_279
*1189 FILLER_0_35_281
*1190 FILLER_0_35_293
*1191 FILLER_0_35_30
*1192 FILLER_0_35_305
*1193 FILLER_0_35_317
*1194 FILLER_0_35_329
*1195 FILLER_0_35_335
*1196 FILLER_0_35_337
*1197 FILLER_0_35_349
*1198 FILLER_0_35_361
*1199 FILLER_0_35_373
*1200 FILLER_0_35_42
*1201 FILLER_0_35_54
*1202 FILLER_0_35_57
*1203 FILLER_0_35_6
*1204 FILLER_0_35_69
*1205 FILLER_0_35_81
*1206 FILLER_0_35_93
*1207 FILLER_0_36_109
*1208 FILLER_0_36_121
*1209 FILLER_0_36_133
*1210 FILLER_0_36_139
*1211 FILLER_0_36_141
*1212 FILLER_0_36_15
*1213 FILLER_0_36_153
*1214 FILLER_0_36_165
*1215 FILLER_0_36_177
*1216 FILLER_0_36_189
*1217 FILLER_0_36_195
*1218 FILLER_0_36_197
*1219 FILLER_0_36_209
*1220 FILLER_0_36_221
*1221 FILLER_0_36_233
*1222 FILLER_0_36_245
*1223 FILLER_0_36_251
*1224 FILLER_0_36_253
*1225 FILLER_0_36_265
*1226 FILLER_0_36_27
*1227 FILLER_0_36_277
*1228 FILLER_0_36_289
*1229 FILLER_0_36_29
*1230 FILLER_0_36_3
*1231 FILLER_0_36_301
*1232 FILLER_0_36_307
*1233 FILLER_0_36_309
*1234 FILLER_0_36_321
*1235 FILLER_0_36_333
*1236 FILLER_0_36_345
*1237 FILLER_0_36_357
*1238 FILLER_0_36_363
*1239 FILLER_0_36_365
*1240 FILLER_0_36_373
*1241 FILLER_0_36_41
*1242 FILLER_0_36_53
*1243 FILLER_0_36_65
*1244 FILLER_0_36_77
*1245 FILLER_0_36_83
*1246 FILLER_0_36_85
*1247 FILLER_0_36_97
*1248 FILLER_0_37_105
*1249 FILLER_0_37_111
*1250 FILLER_0_37_113
*1251 FILLER_0_37_125
*1252 FILLER_0_37_137
*1253 FILLER_0_37_149
*1254 FILLER_0_37_15
*1255 FILLER_0_37_161
*1256 FILLER_0_37_167
*1257 FILLER_0_37_169
*1258 FILLER_0_37_181
*1259 FILLER_0_37_193
*1260 FILLER_0_37_205
*1261 FILLER_0_37_217
*1262 FILLER_0_37_223
*1263 FILLER_0_37_225
*1264 FILLER_0_37_237
*1265 FILLER_0_37_249
*1266 FILLER_0_37_261
*1267 FILLER_0_37_27
*1268 FILLER_0_37_273
*1269 FILLER_0_37_279
*1270 FILLER_0_37_281
*1271 FILLER_0_37_293
*1272 FILLER_0_37_3
*1273 FILLER_0_37_305
*1274 FILLER_0_37_317
*1275 FILLER_0_37_329
*1276 FILLER_0_37_335
*1277 FILLER_0_37_337
*1278 FILLER_0_37_349
*1279 FILLER_0_37_361
*1280 FILLER_0_37_373
*1281 FILLER_0_37_39
*1282 FILLER_0_37_51
*1283 FILLER_0_37_55
*1284 FILLER_0_37_57
*1285 FILLER_0_37_69
*1286 FILLER_0_37_81
*1287 FILLER_0_37_93
*1288 FILLER_0_38_109
*1289 FILLER_0_38_121
*1290 FILLER_0_38_133
*1291 FILLER_0_38_139
*1292 FILLER_0_38_141
*1293 FILLER_0_38_15
*1294 FILLER_0_38_153
*1295 FILLER_0_38_165
*1296 FILLER_0_38_177
*1297 FILLER_0_38_189
*1298 FILLER_0_38_195
*1299 FILLER_0_38_197
*1300 FILLER_0_38_209
*1301 FILLER_0_38_221
*1302 FILLER_0_38_233
*1303 FILLER_0_38_245
*1304 FILLER_0_38_251
*1305 FILLER_0_38_253
*1306 FILLER_0_38_265
*1307 FILLER_0_38_27
*1308 FILLER_0_38_277
*1309 FILLER_0_38_289
*1310 FILLER_0_38_29
*1311 FILLER_0_38_3
*1312 FILLER_0_38_301
*1313 FILLER_0_38_307
*1314 FILLER_0_38_309
*1315 FILLER_0_38_321
*1316 FILLER_0_38_333
*1317 FILLER_0_38_345
*1318 FILLER_0_38_357
*1319 FILLER_0_38_363
*1320 FILLER_0_38_365
*1321 FILLER_0_38_373
*1322 FILLER_0_38_41
*1323 FILLER_0_38_53
*1324 FILLER_0_38_65
*1325 FILLER_0_38_77
*1326 FILLER_0_38_83
*1327 FILLER_0_38_85
*1328 FILLER_0_38_97
*1329 FILLER_0_39_105
*1330 FILLER_0_39_111
*1331 FILLER_0_39_113
*1332 FILLER_0_39_125
*1333 FILLER_0_39_137
*1334 FILLER_0_39_149
*1335 FILLER_0_39_15
*1336 FILLER_0_39_161
*1337 FILLER_0_39_167
*1338 FILLER_0_39_169
*1339 FILLER_0_39_181
*1340 FILLER_0_39_193
*1341 FILLER_0_39_205
*1342 FILLER_0_39_217
*1343 FILLER_0_39_223
*1344 FILLER_0_39_225
*1345 FILLER_0_39_237
*1346 FILLER_0_39_249
*1347 FILLER_0_39_261
*1348 FILLER_0_39_27
*1349 FILLER_0_39_273
*1350 FILLER_0_39_279
*1351 FILLER_0_39_281
*1352 FILLER_0_39_293
*1353 FILLER_0_39_3
*1354 FILLER_0_39_305
*1355 FILLER_0_39_317
*1356 FILLER_0_39_329
*1357 FILLER_0_39_335
*1358 FILLER_0_39_337
*1359 FILLER_0_39_349
*1360 FILLER_0_39_361
*1361 FILLER_0_39_373
*1362 FILLER_0_39_39
*1363 FILLER_0_39_51
*1364 FILLER_0_39_55
*1365 FILLER_0_39_57
*1366 FILLER_0_39_69
*1367 FILLER_0_39_81
*1368 FILLER_0_39_93
*1369 FILLER_0_3_105
*1370 FILLER_0_3_111
*1371 FILLER_0_3_113
*1372 FILLER_0_3_125
*1373 FILLER_0_3_137
*1374 FILLER_0_3_149
*1375 FILLER_0_3_15
*1376 FILLER_0_3_161
*1377 FILLER_0_3_167
*1378 FILLER_0_3_169
*1379 FILLER_0_3_181
*1380 FILLER_0_3_193
*1381 FILLER_0_3_205
*1382 FILLER_0_3_217
*1383 FILLER_0_3_223
*1384 FILLER_0_3_225
*1385 FILLER_0_3_237
*1386 FILLER_0_3_249
*1387 FILLER_0_3_261
*1388 FILLER_0_3_27
*1389 FILLER_0_3_273
*1390 FILLER_0_3_279
*1391 FILLER_0_3_281
*1392 FILLER_0_3_293
*1393 FILLER_0_3_3
*1394 FILLER_0_3_305
*1395 FILLER_0_3_317
*1396 FILLER_0_3_329
*1397 FILLER_0_3_335
*1398 FILLER_0_3_337
*1399 FILLER_0_3_349
*1400 FILLER_0_3_361
*1401 FILLER_0_3_373
*1402 FILLER_0_3_39
*1403 FILLER_0_3_51
*1404 FILLER_0_3_55
*1405 FILLER_0_3_57
*1406 FILLER_0_3_69
*1407 FILLER_0_3_81
*1408 FILLER_0_3_93
*1409 FILLER_0_40_109
*1410 FILLER_0_40_121
*1411 FILLER_0_40_133
*1412 FILLER_0_40_139
*1413 FILLER_0_40_141
*1414 FILLER_0_40_15
*1415 FILLER_0_40_153
*1416 FILLER_0_40_165
*1417 FILLER_0_40_177
*1418 FILLER_0_40_189
*1419 FILLER_0_40_195
*1420 FILLER_0_40_197
*1421 FILLER_0_40_209
*1422 FILLER_0_40_221
*1423 FILLER_0_40_233
*1424 FILLER_0_40_245
*1425 FILLER_0_40_251
*1426 FILLER_0_40_253
*1427 FILLER_0_40_265
*1428 FILLER_0_40_27
*1429 FILLER_0_40_277
*1430 FILLER_0_40_289
*1431 FILLER_0_40_29
*1432 FILLER_0_40_3
*1433 FILLER_0_40_301
*1434 FILLER_0_40_307
*1435 FILLER_0_40_309
*1436 FILLER_0_40_321
*1437 FILLER_0_40_333
*1438 FILLER_0_40_345
*1439 FILLER_0_40_357
*1440 FILLER_0_40_363
*1441 FILLER_0_40_365
*1442 FILLER_0_40_373
*1443 FILLER_0_40_41
*1444 FILLER_0_40_53
*1445 FILLER_0_40_65
*1446 FILLER_0_40_77
*1447 FILLER_0_40_83